Controller
*SPICE Netlist generated by Advanced Sim server on 2021/11/26 11:50:09

*Schematic Netlist:

.SAVE 0


*Selected Circuit Analyses:
.TRAN 2E-8 5E-6 0 2E-8
.OP

.END
